Version 4
SHEET 1 1244 680
WIRE 720 -96 416 -96
WIRE 416 -64 416 -96
WIRE 720 -64 720 -96
WIRE 944 -64 816 -64
WIRE 720 -32 544 -32
WIRE 736 -32 720 -32
WIRE 944 -32 816 -32
WIRE 720 0 688 0
WIRE 416 32 416 16
WIRE 544 112 544 -32
WIRE 688 112 688 0
WIRE 688 208 688 192
WIRE 544 240 544 192
FLAG 416 -96 CLOCK
FLAG 544 -32 S
FLAG 688 112 R
FLAG 416 32 0
FLAG 544 240 0
FLAG 688 208 0
SYMBOL flipflop 768 -32 R0
SYMATTR InstName X1
SYMBOL Misc\\signal 416 -80 R0
WINDOW 123 0 0 Left 0
WINDOW 39 0 0 Left 0
WINDOW 3 -355 -29 Left 2
SYMATTR InstName V2
SYMATTR Value PULSE(0 2 0 1n 1n 1u 2u)
SYMBOL Misc\\signal 544 96 R0
WINDOW 123 0 0 Left 0
WINDOW 39 0 0 Left 0
WINDOW 3 -337 55 Left 2
SYMATTR InstName V3
SYMATTR Value PULSE(0 2 0 1n 1n 2u 4u)
SYMBOL Misc\\signal 688 96 R0
WINDOW 123 0 0 Left 0
WINDOW 39 0 0 Left 0
WINDOW 3 66 57 Left 2
SYMATTR InstName V4
SYMATTR Value PULSE(0 2 0 1n 1n 4u 8u)
TEXT 216 304 Left 2 !.tran 0 16u 0
