Version 4
SHEET 1 880 680
WIRE -720 -896 -864 -896
WIRE -112 -832 -304 -832
WIRE -880 -800 -864 -816
WIRE -720 -768 -816 -768
WIRE -816 -672 -816 -688
WIRE 608 -592 304 -592
WIRE 304 -544 304 -592
WIRE 608 -544 608 -592
WIRE 608 -544 528 -544
WIRE 720 -544 608 -544
WIRE 608 -496 608 -544
WIRE 608 -496 528 -496
WIRE 720 -496 608 -496
WIRE 480 -464 384 -464
WIRE 848 -464 768 -464
WIRE 720 -448 528 -448
WIRE 304 -432 304 -464
WIRE 528 -416 528 -448
WIRE 720 -400 720 -448
WIRE 608 -368 528 -368
WIRE 624 -368 608 -368
WIRE 720 -368 720 -400
WIRE 384 -336 384 -464
WIRE 384 -336 176 -336
WIRE 480 -336 384 -336
WIRE 528 -304 528 -320
WIRE 176 -288 176 -336
WIRE 464 -288 288 -288
WIRE 720 -272 720 -304
WIRE 608 -256 608 -368
WIRE 608 -256 528 -256
WIRE 464 -224 464 -288
WIRE 480 -224 464 -224
WIRE 528 -192 528 -208
WIRE 608 -192 608 -256
WIRE 608 -192 528 -192
WIRE 176 -176 176 -208
WIRE 288 -176 288 -208
WIRE 528 -176 528 -192
WIRE 464 -144 464 -224
WIRE 848 -144 848 -464
WIRE 848 -144 464 -144
FLAG 176 -176 0
FLAG 304 -432 0
FLAG 720 -272 0
FLAG 288 -176 0
FLAG 528 -176 0
FLAG 720 -400 out
FLAG 176 -336 A
FLAG 288 -288 B
FLAG 304 -592 Vdd
FLAG -816 -672 0
FLAG -880 -800 0
SYMBOL nmos4 480 -304 R0
SYMATTR InstName M1
SYMATTR Value2 l=0.15u w=1.24u
SYMBOL voltage 304 -560 R0
WINDOW 123 0 0 Left 0
WINDOW 39 0 0 Left 0
SYMATTR InstName V2
SYMATTR Value 2
SYMBOL cap 704 -368 R0
SYMATTR InstName C1
SYMATTR Value 30f
SYMBOL nmos4 480 -416 R0
SYMATTR InstName M3
SYMATTR Value2 l=0.15u w=1.24u
SYMBOL pmos4 480 -544 R0
SYMATTR InstName M4
SYMATTR Value2 l=0.15u w=2.85u
SYMBOL pmos4 768 -544 M0
SYMATTR InstName M5
SYMATTR Value2 l=0.15u w=2.85u
SYMBOL Misc\\signal 288 -304 R0
WINDOW 3 -27 200 Left 2
WINDOW 123 0 0 Left 0
WINDOW 39 0 0 Left 0
SYMATTR Value PULSE(0 2 0 1n 1n 5u 10u)
SYMATTR InstName V1
SYMBOL Misc\\signal 176 -304 R0
WINDOW 3 -242 199 Left 2
WINDOW 123 0 0 Left 0
WINDOW 39 0 0 Left 0
SYMATTR Value PULSE(0 2 0 1n 1n 10u 20u)
SYMATTR InstName V3
SYMBOL NAND2_symbol -480 -800 R0
SYMATTR InstName X1
SYMBOL Misc\\signal -864 -912 R0
WINDOW 3 -303 90 Left 2
WINDOW 123 0 0 Left 0
WINDOW 39 0 0 Left 0
SYMATTR Value PULSE(0 2 0 1n 1n 10u 20u)
SYMATTR InstName V4
SYMBOL Misc\\signal -816 -784 R0
WINDOW 3 37 63 Left 2
WINDOW 123 0 0 Left 0
WINDOW 39 0 0 Left 0
SYMATTR Value PULSE(0 2 0 1n 1n 5u 10u)
SYMATTR InstName V5
TEXT -32 -728 Left 2 !.model NMOS NMOS(KP=400u VT0=0.45)
TEXT -32 -672 Left 2 !.model PMOS PMOS(KP=87u VT0=-0.45)
TEXT -24 -784 Left 2 !.tran 21u
